Version 4
SHEET 1 1068 1176
WIRE -224 -32 -224 -80
WIRE 64 112 -368 112
WIRE 208 128 128 128
WIRE -80 144 -96 144
WIRE 64 144 -16 144
WIRE -224 160 -224 48
WIRE -128 160 -128 48
WIRE -128 160 -224 160
WIRE -96 160 -96 144
WIRE -96 160 -128 160
WIRE -224 176 -224 160
WIRE -80 176 -80 160
WIRE 288 192 256 192
WIRE 464 192 384 192
WIRE 608 192 464 192
WIRE 832 208 736 208
WIRE 672 224 640 224
WIRE 208 240 208 128
WIRE 288 240 208 240
WIRE 64 256 -144 256
WIRE 608 256 608 192
WIRE 672 256 608 256
WIRE 144 272 128 272
WIRE 256 272 256 192
WIRE 256 272 144 272
WIRE -224 288 -224 256
WIRE -144 288 -144 256
WIRE -144 288 -224 288
WIRE -80 288 -96 288
WIRE 640 288 640 224
WIRE -96 304 -96 288
WIRE -96 304 -368 304
WIRE -80 336 -80 304
WIRE 64 352 64 256
WIRE 288 352 288 272
WIRE -224 368 -224 288
WIRE 128 368 128 272
WIRE -16 384 -16 288
WIRE 64 384 -16 384
WIRE 464 496 464 192
WIRE 464 496 352 496
WIRE -224 560 -224 448
WIRE 304 560 -224 560
WIRE 832 560 400 560
WIRE -224 624 -224 560
WIRE 400 816 400 720
WIRE -16 896 -80 896
WIRE 400 912 400 896
WIRE 400 912 320 912
WIRE 656 912 656 848
WIRE 784 912 784 848
WIRE 400 944 400 912
WIRE 400 944 320 944
WIRE -80 960 -80 896
WIRE 400 992 400 944
WIRE -304 1008 -304 960
WIRE -304 1008 -352 1008
WIRE 656 1056 656 992
WIRE 784 1056 784 992
WIRE -304 1072 -304 1008
WIRE -80 1072 -80 1040
WIRE 400 1136 400 1056
FLAG 832 208 out
FLAG -224 624 GROUND
FLAG 96 400 GROUND
FLAG 96 160 GROUND
FLAG 288 352 RESET
FLAG -224 -80 VCC
FLAG 96 96 VCC
FLAG 96 336 VCC
FLAG 832 560 DISCHARGE
FLAG -128 48 cont
FLAG -368 112 TRES
FLAG -368 304 TRIG
FLAG -304 1072 0
FLAG -304 960 GROUND
FLAG -80 1072 0
FLAG -16 896 VCC
FLAG 400 1136 0
FLAG 400 720 VCC
FLAG 320 944 TRES
FLAG 320 912 DISCHARGE
FLAG 784 1056 0
FLAG 656 1056 0
FLAG 784 848 cont
FLAG 656 848 TRIG
FLAG -352 1008 RESET
FLAG -80 176 0
FLAG -80 336 0
FLAG 640 288 0
FLAG -224 160 PRIM
FLAG -224 288 sec
FLAG 464 192 FF
FLAG 208 128 1AMPOP
FLAG 144 272 2AMPOP
SYMBOL Comparators\\LT1017 96 128 R0
SYMATTR InstName U1
SYMBOL Comparators\\LT1017 96 368 R0
SYMATTR InstName U2
SYMBOL Digital\\inv -80 224 R0
SYMATTR InstName A1
SYMBOL Digital\\inv -80 80 R0
SYMATTR InstName A2
SYMBOL res -240 -48 R0
SYMATTR InstName R1
SYMATTR Value 5k
SYMBOL res -240 160 R0
SYMATTR InstName R2
SYMATTR Value 5k
SYMBOL res -240 352 R0
SYMATTR InstName R3
SYMATTR Value 5k
SYMBOL npn 400 496 R90
SYMATTR InstName Q1
SYMBOL Digital\\buf 672 160 R0
SYMATTR InstName A3
SYMBOL Digital\\srflop 336 144 R0
SYMATTR InstName A4
SYMBOL voltage -80 944 R0
WINDOW 123 0 0 Left 0
WINDOW 39 0 0 Left 0
SYMATTR InstName V1
SYMATTR Value 1
SYMBOL res 384 800 R0
SYMATTR InstName R4
SYMATTR Value 3K
SYMBOL cap 384 992 R0
SYMATTR InstName C1
SYMATTR Value 0.02µ
SYMBOL voltage 656 896 R0
WINDOW 3 -121 206 Left 2
WINDOW 123 0 0 Left 0
WINDOW 39 0 0 Left 0
SYMATTR InstName V2
SYMATTR Value PULSE(0 1 0 1p 1p 5u 10u)
SYMBOL voltage 784 896 R0
WINDOW 123 0 0 Left 0
WINDOW 39 0 0 Left 0
SYMATTR InstName V3
SYMATTR Value wavefile=dangan.wav
TEXT -442 1160 Left 2 !.tran 0 0.7 0.6
